Circuit: * C:\Users\deven\Documents\GitHub\expert-invention\Amp simulation.asc

Direct Newton iteration for .op point succeeded.

Date: Fri Apr 23 09:31:16 2021
Total elapsed time: 0.066 seconds.

tnom = 27
temp = 27
method = trap
totiter = 3
traniter = 0
tranpoints = 0
accept = 0
rejected = 0
matrix size = 14
fillins = 7
solver = Normal
Matrix Compiler1:      49 opcodes
Matrix Compiler2: 1.29 KB object code size
