Circuit: * C:\Users\deven\Documents\GitHub\expert-invention\Draft2.asc

Direct Newton iteration for .op point succeeded.

Date: Sat Apr 03 12:46:33 2021
Total elapsed time: 0.063 seconds.

tnom = 27
temp = 27
method = trap
totiter = 7
traniter = 0
tranpoints = 0
accept = 0
rejected = 0
matrix size = 10
fillins = 1
solver = Normal
Matrix Compiler1:      23 opcodes
Matrix Compiler2: 874 bytes object code size
